output/CTMT/Cargas_BT_DU12_CTMT.dss
New "Load.BT_6425_M1" bus1="UC15168.1.4" phases=1 conn=delta model=2 kv=0.22 kw = 1553.934417287677 pf=0.92 status=variable vmaxpu=1.5 vminpu=0.93 daily="RES_2_DU" 
New "Load.BT_6425_M2" bus1="UC15168.1.4" phases=1 conn=delta model=3 kv=0.22 kw = 1553.934417287677 pf=0.92 status=variable vmaxpu=1.5 vminpu=0.93 daily="RES_2_DU"
 
New "Load.BT_7259_M1" bus1="UC15169.1.2.3.4" phases=3 conn=delta model=2 kv=0.38 kw = 1134.6187808767165 pf=0.92 status=variable vmaxpu=1.5 vminpu=0.93 daily="RES_2_DU" 
New "Load.BT_7259_M2" bus1="UC15169.1.2.3.4" phases=3 conn=delta model=3 kv=0.38 kw = 1134.6187808767165 pf=0.92 status=variable vmaxpu=1.5 vminpu=0.93 daily="RES_2_DU"
 
New "Load.BT_352_M1" bus1="UC15174.1.4" phases=1 conn=delta model=2 kv=0.22 kw = 924.7704961688659 pf=0.92 status=variable vmaxpu=1.5 vminpu=0.93 daily="RES_10_DU" 
New "Load.BT_352_M2" bus1="UC15174.1.4" phases=1 conn=delta model=3 kv=0.22 kw = 924.7704961688659 pf=0.92 status=variable vmaxpu=1.5 vminpu=0.93 daily="RES_10_DU"
 
New "Load.BT_2941_M1" bus1="UC13788.3.4" phases=1 conn=delta model=2 kv=0.22 kw = 503.1787636931526 pf=0.92 status=variable vmaxpu=1.5 vminpu=0.93 daily="RES_2_DU" 
New "Load.BT_2941_M2" bus1="UC13788.3.4" phases=1 conn=delta model=3 kv=0.22 kw = 503.1787636931526 pf=0.92 status=variable vmaxpu=1.5 vminpu=0.93 daily="RES_2_DU"
 
New "Load.BT_714_M1" bus1="UC15175.1.2.3.4" phases=3 conn=delta model=2 kv=0.38 kw = 1790.7244237315135 pf=0.92 status=variable vmaxpu=1.5 vminpu=0.93 daily="RES_2_DU" 
New "Load.BT_714_M2" bus1="UC15175.1.2.3.4" phases=3 conn=delta model=3 kv=0.38 kw = 1790.7244237315135 pf=0.92 status=variable vmaxpu=1.5 vminpu=0.93 daily="RES_2_DU"
 
New "Load.BT_7479_M1" bus1="ET1_159.2.3.4" phases=2 conn=delta model=2 kv=0.38 kw = 1071.1871518905302 pf=0.92 status=variable vmaxpu=1.5 vminpu=0.93 daily="RES_3_DU" 
New "Load.BT_7479_M2" bus1="ET1_159.2.3.4" phases=2 conn=delta model=3 kv=0.38 kw = 1071.1871518905302 pf=0.92 status=variable vmaxpu=1.5 vminpu=0.93 daily="RES_3_DU"
 
New "Load.BT_7575_M1" bus1="UC15178.3.4" phases=1 conn=delta model=2 kv=0.22 kw = 1569.173138736373 pf=0.92 status=variable vmaxpu=1.5 vminpu=0.93 daily="RES_1_DU" 
New "Load.BT_7575_M2" bus1="UC15178.3.4" phases=1 conn=delta model=3 kv=0.22 kw = 1569.173138736373 pf=0.92 status=variable vmaxpu=1.5 vminpu=0.93 daily="RES_1_DU"
 
New "Load.BT_6438_M1" bus1="UC15180.1.4" phases=1 conn=delta model=2 kv=0.22 kw = 813.9656471506879 pf=0.92 status=variable vmaxpu=1.5 vminpu=0.93 daily="RES_2_DU" 
New "Load.BT_6438_M2" bus1="UC15180.1.4" phases=1 conn=delta model=3 kv=0.22 kw = 813.9656471506879 pf=0.92 status=variable vmaxpu=1.5 vminpu=0.93 daily="RES_2_DU"
 
New "Load.BT_387_M1" bus1="UC15581.1.2.3.4" phases=3 conn=delta model=2 kv=0.38 kw = 869.3692826937637 pf=0.92 status=variable vmaxpu=1.5 vminpu=0.93 daily="RES_3_DU" 
New "Load.BT_387_M2" bus1="UC15581.1.2.3.4" phases=3 conn=delta model=3 kv=0.38 kw = 869.3692826937637 pf=0.92 status=variable vmaxpu=1.5 vminpu=0.93 daily="RES_3_DU"
 
New "Load.BT_7928_M1" bus1="UC15838.3.4" phases=1 conn=delta model=2 kv=0.22 kw = 133.9960075841633 pf=0.92 status=variable vmaxpu=1.5 vminpu=0.93 daily="RES_7_DU" 
New "Load.BT_7928_M2" bus1="UC15838.3.4" phases=1 conn=delta model=3 kv=0.22 kw = 133.9960075841633 pf=0.92 status=variable vmaxpu=1.5 vminpu=0.93 daily="RES_7_DU"
 
New "Load.BT_8263_M1" bus1="UC14653.1.2.3.4" phases=3 conn=delta model=2 kv=0.38 kw = 496.7824472535792 pf=0.92 status=variable vmaxpu=1.5 vminpu=0.93 daily="RES_3_DU" 
New "Load.BT_8263_M2" bus1="UC14653.1.2.3.4" phases=3 conn=delta model=3 kv=0.38 kw = 496.7824472535792 pf=0.92 status=variable vmaxpu=1.5 vminpu=0.93 daily="RES_3_DU"
 
New "Load.BT_7436_M1" bus1="UC10919.3.4" phases=1 conn=delta model=2 kv=0.22 kw = 765.8729395159346 pf=0.92 status=variable vmaxpu=1.5 vminpu=0.93 daily="RES_3_DU" 
New "Load.BT_7436_M2" bus1="UC10919.3.4" phases=1 conn=delta model=3 kv=0.22 kw = 765.8729395159346 pf=0.92 status=variable vmaxpu=1.5 vminpu=0.93 daily="RES_3_DU"
 
New "Load.BT_2214_M1" bus1="UC16152.1.4" phases=1 conn=delta model=2 kv=0.22 kw = 0.0 pf=0.92 status=variable vmaxpu=1.5 vminpu=0.93 daily="RES_7_DU" 
New "Load.BT_2214_M2" bus1="UC16152.1.4" phases=1 conn=delta model=3 kv=0.22 kw = 0.0 pf=0.92 status=variable vmaxpu=1.5 vminpu=0.93 daily="RES_7_DU"
 
New "Load.BT_2922_M1" bus1="UC2530.1.4" phases=1 conn=delta model=2 kv=0.22 kw = 377.7616525990759 pf=0.92 status=variable vmaxpu=1.5 vminpu=0.93 daily="RES_3_DU" 
New "Load.BT_2922_M2" bus1="UC2530.1.4" phases=1 conn=delta model=3 kv=0.22 kw = 377.7616525990759 pf=0.92 status=variable vmaxpu=1.5 vminpu=0.93 daily="RES_3_DU"
 
New "Load.BT_8626_M1" bus1="UC16140.1.2.3.4" phases=3 conn=delta model=2 kv=0.38 kw = 13200.95857233209 pf=0.92 status=variable vmaxpu=1.5 vminpu=0.93 daily="RES_3_DU" 
New "Load.BT_8626_M2" bus1="UC16140.1.2.3.4" phases=3 conn=delta model=3 kv=0.38 kw = 13200.95857233209 pf=0.92 status=variable vmaxpu=1.5 vminpu=0.93 daily="RES_3_DU"
 
New "Load.BT_288_M1" bus1="UC16156.3.4" phases=1 conn=delta model=2 kv=0.22 kw = 70.18838492503792 pf=0.92 status=variable vmaxpu=1.5 vminpu=0.93 daily="RES_7_DU" 
New "Load.BT_288_M2" bus1="UC16156.3.4" phases=1 conn=delta model=3 kv=0.22 kw = 70.18838492503792 pf=0.92 status=variable vmaxpu=1.5 vminpu=0.93 daily="RES_7_DU"
 
New "Load.BT_715_M1" bus1="UC16132.3.4" phases=1 conn=delta model=2 kv=0.22 kw = 77.26529685399211 pf=0.92 status=variable vmaxpu=1.5 vminpu=0.93 daily="COM_5_DU" 
New "Load.BT_715_M2" bus1="UC16132.3.4" phases=1 conn=delta model=3 kv=0.22 kw = 77.26529685399211 pf=0.92 status=variable vmaxpu=1.5 vminpu=0.93 daily="COM_5_DU"
 
New "Load.BT_1454_M1" bus1="UC8216.3.4" phases=1 conn=delta model=2 kv=0.22 kw = 1914.6823487898366 pf=0.92 status=variable vmaxpu=1.5 vminpu=0.93 daily="RES_3_DU" 
New "Load.BT_1454_M2" bus1="UC8216.3.4" phases=1 conn=delta model=3 kv=0.22 kw = 1914.6823487898366 pf=0.92 status=variable vmaxpu=1.5 vminpu=0.93 daily="RES_3_DU"
 
New "Load.BT_1169_M1" bus1="UC16139.2.4" phases=1 conn=delta model=2 kv=0.22 kw = 926.2922714415696 pf=0.92 status=variable vmaxpu=1.5 vminpu=0.93 daily="RES_3_DU" 
New "Load.BT_1169_M2" bus1="UC16139.2.4" phases=1 conn=delta model=3 kv=0.22 kw = 926.2922714415696 pf=0.92 status=variable vmaxpu=1.5 vminpu=0.93 daily="RES_3_DU"
 
New "Load.BT_2362_M1" bus1="UC16135.3.4" phases=1 conn=delta model=2 kv=0.22 kw = 589.9291561136254 pf=0.92 status=variable vmaxpu=1.5 vminpu=0.93 daily="RES_3_DU" 
New "Load.BT_2362_M2" bus1="UC16135.3.4" phases=1 conn=delta model=3 kv=0.22 kw = 589.9291561136254 pf=0.92 status=variable vmaxpu=1.5 vminpu=0.93 daily="RES_3_DU"
 
New "Load.BT_7328_M1" bus1="UC16138.3.4" phases=1 conn=delta model=2 kv=0.22 kw = 34.34013193510761 pf=0.92 status=variable vmaxpu=1.5 vminpu=0.93 daily="COM_5_DU" 
New "Load.BT_7328_M2" bus1="UC16138.3.4" phases=1 conn=delta model=3 kv=0.22 kw = 34.34013193510761 pf=0.92 status=variable vmaxpu=1.5 vminpu=0.93 daily="COM_5_DU"
 
New "Load.BT_1673_M1" bus1="UC8555.3.4" phases=1 conn=delta model=2 kv=0.22 kw = 1112.585689161662 pf=0.92 status=variable vmaxpu=1.5 vminpu=0.93 daily="RES_3_DU" 
New "Load.BT_1673_M2" bus1="UC8555.3.4" phases=1 conn=delta model=3 kv=0.22 kw = 1112.585689161662 pf=0.92 status=variable vmaxpu=1.5 vminpu=0.93 daily="RES_3_DU"
 
New "Load.BT_1124_M1" bus1="UC15362.2.3.4" phases=2 conn=delta model=2 kv=0.38 kw = 0.0 pf=0.92 status=variable vmaxpu=1.5 vminpu=0.93 daily="RES_7_DU" 
New "Load.BT_1124_M2" bus1="UC15362.2.3.4" phases=2 conn=delta model=3 kv=0.38 kw = 0.0 pf=0.92 status=variable vmaxpu=1.5 vminpu=0.93 daily="RES_7_DU"
 
New "Load.BT_84_M1" bus1="UC5102.1.4" phases=1 conn=delta model=2 kv=0.22 kw = 796.9218424692833 pf=0.92 status=variable vmaxpu=1.5 vminpu=0.93 daily="RES_3_DU" 
New "Load.BT_84_M2" bus1="UC5102.1.4" phases=1 conn=delta model=3 kv=0.22 kw = 796.9218424692833 pf=0.92 status=variable vmaxpu=1.5 vminpu=0.93 daily="RES_3_DU"
 
New "Load.BT_1414_M1" bus1="UC7753.1.4" phases=1 conn=delta model=2 kv=0.22 kw = 120.19046177287662 pf=0.92 status=variable vmaxpu=1.5 vminpu=0.93 daily="COM_5_DU" 
New "Load.BT_1414_M2" bus1="UC7753.1.4" phases=1 conn=delta model=3 kv=0.22 kw = 120.19046177287662 pf=0.92 status=variable vmaxpu=1.5 vminpu=0.93 daily="COM_5_DU"
 
New "Load.BT_6437_M1" bus1="UC12439.3.4" phases=1 conn=delta model=2 kv=0.22 kw = 377.7616525990759 pf=0.92 status=variable vmaxpu=1.5 vminpu=0.93 daily="RES_3_DU" 
New "Load.BT_6437_M2" bus1="UC12439.3.4" phases=1 conn=delta model=3 kv=0.22 kw = 377.7616525990759 pf=0.92 status=variable vmaxpu=1.5 vminpu=0.93 daily="RES_3_DU"
 
New "Load.BT_2368_M1" bus1="UC9732.1.4" phases=1 conn=delta model=2 kv=0.22 kw = 162.7931294301376 pf=0.92 status=variable vmaxpu=1.5 vminpu=0.93 daily="RES_2_DU" 
New "Load.BT_2368_M2" bus1="UC9732.1.4" phases=1 conn=delta model=3 kv=0.22 kw = 162.7931294301376 pf=0.92 status=variable vmaxpu=1.5 vminpu=0.93 daily="RES_2_DU"
 
New "Load.BT_491_M1" bus1="UC1855.1.4" phases=1 conn=delta model=2 kv=0.22 kw = 902.7618995671266 pf=0.92 status=variable vmaxpu=1.5 vminpu=0.93 daily="RES_2_DU" 
New "Load.BT_491_M2" bus1="UC1855.1.4" phases=1 conn=delta model=3 kv=0.22 kw = 902.7618995671266 pf=0.92 status=variable vmaxpu=1.5 vminpu=0.93 daily="RES_2_DU"
 
New "Load.BT_1491_M1" bus1="UC1136.2.4" phases=1 conn=delta model=2 kv=0.22 kw = 708.2646115162917 pf=0.92 status=variable vmaxpu=1.5 vminpu=0.93 daily="RES_7_DU" 
New "Load.BT_1491_M2" bus1="UC1136.2.4" phases=1 conn=delta model=3 kv=0.22 kw = 708.2646115162917 pf=0.92 status=variable vmaxpu=1.5 vminpu=0.93 daily="RES_7_DU"
 
New "Load.BT_2368_M1" bus1="UC9732.2.4" phases=1 conn=delta model=2 kv=0.22 kw = 176.4921257529454 pf=0.92 status=variable vmaxpu=1.5 vminpu=0.93 daily="RES_9_DU" 
New "Load.BT_2368_M2" bus1="UC9732.2.4" phases=1 conn=delta model=3 kv=0.22 kw = 176.4921257529454 pf=0.92 status=variable vmaxpu=1.5 vminpu=0.93 daily="RES_9_DU"
 
New "Load.BT_8141_M1" bus1="UC15851.3.4" phases=1 conn=delta model=2 kv=0.22 kw = 255.23049063650151 pf=0.92 status=variable vmaxpu=1.5 vminpu=0.93 daily="RES_7_DU" 
New "Load.BT_8141_M2" bus1="UC15851.3.4" phases=1 conn=delta model=3 kv=0.22 kw = 255.23049063650151 pf=0.92 status=variable vmaxpu=1.5 vminpu=0.93 daily="RES_7_DU"
 
New "Load.BT_7354_M1" bus1="UC15850.3.1.4" phases=2 conn=delta model=2 kv=0.38 kw = 454.3733667721484 pf=0.92 status=variable vmaxpu=1.5 vminpu=0.93 daily="RES_1_DU" 
New "Load.BT_7354_M2" bus1="UC15850.3.1.4" phases=2 conn=delta model=3 kv=0.38 kw = 454.3733667721484 pf=0.92 status=variable vmaxpu=1.5 vminpu=0.93 daily="RES_1_DU"
 
New "Load.BT_918_M1" bus1="UC15688.1.4" phases=1 conn=delta model=2 kv=0.22 kw = 605.4536075902997 pf=0.92 status=variable vmaxpu=1.5 vminpu=0.93 daily="RES_3_DU" 
New "Load.BT_918_M2" bus1="UC15688.1.4" phases=1 conn=delta model=3 kv=0.22 kw = 605.4536075902997 pf=0.92 status=variable vmaxpu=1.5 vminpu=0.93 daily="RES_3_DU"
 
New "Load.BT_2932_M1" bus1="UC10153.2.4" phases=1 conn=delta model=2 kv=0.22 kw = 1143.6345921150107 pf=0.92 status=variable vmaxpu=1.5 vminpu=0.93 daily="RES_3_DU" 
New "Load.BT_2932_M2" bus1="UC10153.2.4" phases=1 conn=delta model=3 kv=0.22 kw = 1143.6345921150107 pf=0.92 status=variable vmaxpu=1.5 vminpu=0.93 daily="RES_3_DU"
 
New "Load.BT_6949_M1" bus1="UC15497.1.4" phases=1 conn=delta model=2 kv=0.22 kw = 1331.9437862465802 pf=0.92 status=variable vmaxpu=1.5 vminpu=0.93 daily="RES_2_DU" 
New "Load.BT_6949_M2" bus1="UC15497.1.4" phases=1 conn=delta model=3 kv=0.22 kw = 1331.9437862465802 pf=0.92 status=variable vmaxpu=1.5 vminpu=0.93 daily="RES_2_DU"
 
New "Load.BT_6949_M1" bus1="UC15497.3.4" phases=1 conn=delta model=2 kv=0.22 kw = 157.860004295891 pf=0.92 status=variable vmaxpu=1.5 vminpu=0.93 daily="RES_2_DU" 
New "Load.BT_6949_M2" bus1="UC15497.3.4" phases=1 conn=delta model=3 kv=0.22 kw = 157.860004295891 pf=0.92 status=variable vmaxpu=1.5 vminpu=0.93 daily="RES_2_DU"
 
New "Load.BT_1531_M1" bus1="UC5544.2.4" phases=1 conn=delta model=2 kv=0.22 kw = 1011.2906525205516 pf=0.92 status=variable vmaxpu=1.5 vminpu=0.93 daily="RES_2_DU" 
New "Load.BT_1531_M2" bus1="UC5544.2.4" phases=1 conn=delta model=3 kv=0.22 kw = 1011.2906525205516 pf=0.92 status=variable vmaxpu=1.5 vminpu=0.93 daily="RES_2_DU"
 
New "Load.BT_293_M1" bus1="UC15499.3.4" phases=1 conn=delta model=2 kv=0.22 kw = 961.9594011780856 pf=0.92 status=variable vmaxpu=1.5 vminpu=0.93 daily="RES_2_DU" 
New "Load.BT_293_M2" bus1="UC15499.3.4" phases=1 conn=delta model=3 kv=0.22 kw = 961.9594011780856 pf=0.92 status=variable vmaxpu=1.5 vminpu=0.93 daily="RES_2_DU"
 
New "Load.BT_1432_M1" bus1="UC8603.1.2.3.4" phases=3 conn=delta model=2 kv=0.38 kw = 854.0264112155525 pf=0.92 status=variable vmaxpu=1.5 vminpu=0.93 daily="COM_1_DU" 
New "Load.BT_1432_M2" bus1="UC8603.1.2.3.4" phases=3 conn=delta model=3 kv=0.38 kw = 854.0264112155525 pf=0.92 status=variable vmaxpu=1.5 vminpu=0.93 daily="COM_1_DU"
 
New "Load.BT_8049_M1" bus1="UC15509.1.2.4" phases=2 conn=delta model=2 kv=0.38 kw = 88.79625241643869 pf=0.92 status=variable vmaxpu=1.5 vminpu=0.93 daily="RES_2_DU" 
New "Load.BT_8049_M2" bus1="UC15509.1.2.4" phases=2 conn=delta model=3 kv=0.38 kw = 88.79625241643869 pf=0.92 status=variable vmaxpu=1.5 vminpu=0.93 daily="RES_2_DU"
 
New "Load.BT_2623_M1" bus1="UC15510.1.2.3.4" phases=3 conn=delta model=2 kv=0.38 kw = 925.4722004806667 pf=0.92 status=variable vmaxpu=1.5 vminpu=0.93 daily="COM_1_DU" 
New "Load.BT_2623_M2" bus1="UC15510.1.2.3.4" phases=3 conn=delta model=3 kv=0.38 kw = 925.4722004806667 pf=0.92 status=variable vmaxpu=1.5 vminpu=0.93 daily="COM_1_DU"
 
New "Load.BT_3013_M1" bus1="UC6671.1.4" phases=1 conn=delta model=2 kv=0.22 kw = 384.7837604712343 pf=0.92 status=variable vmaxpu=1.5 vminpu=0.93 daily="RES_2_DU" 
New "Load.BT_3013_M2" bus1="UC6671.1.4" phases=1 conn=delta model=3 kv=0.22 kw = 384.7837604712343 pf=0.92 status=variable vmaxpu=1.5 vminpu=0.93 daily="RES_2_DU"
 
New "Load.BT_6930_M1" bus1="UC9626.3.4" phases=1 conn=delta model=2 kv=0.22 kw = 759.7012706739754 pf=0.92 status=variable vmaxpu=1.5 vminpu=0.93 daily="RES_2_DU" 
New "Load.BT_6930_M2" bus1="UC9626.3.4" phases=1 conn=delta model=3 kv=0.22 kw = 759.7012706739754 pf=0.92 status=variable vmaxpu=1.5 vminpu=0.93 daily="RES_2_DU"
 
New "Load.BT_2941_M1" bus1="UC13002.3.4" phases=1 conn=delta model=2 kv=0.22 kw = 107.99944888912628 pf=0.92 status=variable vmaxpu=1.5 vminpu=0.93 daily="COM_1_DU" 
New "Load.BT_2941_M2" bus1="UC13002.3.4" phases=1 conn=delta model=3 kv=0.22 kw = 107.99944888912628 pf=0.92 status=variable vmaxpu=1.5 vminpu=0.93 daily="COM_1_DU"
 
New "Load.BT_7308_M1" bus1="UC13331.1.4" phases=1 conn=delta model=2 kv=0.22 kw = 0.0 pf=0.92 status=variable vmaxpu=1.5 vminpu=0.93 daily="RES_2_DU" 
New "Load.BT_7308_M2" bus1="UC13331.1.4" phases=1 conn=delta model=3 kv=0.22 kw = 0.0 pf=0.92 status=variable vmaxpu=1.5 vminpu=0.93 daily="RES_2_DU"
 
New "Load.BT_3010_M1" bus1="UC14890.1.2.3.4" phases=3 conn=delta model=2 kv=0.38 kw = 503.1787636931526 pf=0.92 status=variable vmaxpu=1.5 vminpu=0.93 daily="RES_2_DU" 
New "Load.BT_3010_M2" bus1="UC14890.1.2.3.4" phases=3 conn=delta model=3 kv=0.38 kw = 503.1787636931526 pf=0.92 status=variable vmaxpu=1.5 vminpu=0.93 daily="RES_2_DU"
 
New "Load.BT_3010_M1" bus1="UC14890.1.2.3.4" phases=3 conn=delta model=2 kv=0.38 kw = 562.3762653041117 pf=0.92 status=variable vmaxpu=1.5 vminpu=0.93 daily="RES_2_DU" 
New "Load.BT_3010_M2" bus1="UC14890.1.2.3.4" phases=3 conn=delta model=3 kv=0.38 kw = 562.3762653041117 pf=0.92 status=variable vmaxpu=1.5 vminpu=0.93 daily="RES_2_DU"
 
New "Load.BT_1267_M1" bus1="UC15137.1.2.3.4" phases=3 conn=delta model=2 kv=0.38 kw = 6775.7192703054925 pf=0.92 status=variable vmaxpu=1.5 vminpu=0.93 daily="IND_1_DU" 
New "Load.BT_1267_M2" bus1="UC15137.1.2.3.4" phases=3 conn=delta model=3 kv=0.38 kw = 6775.7192703054925 pf=0.92 status=variable vmaxpu=1.5 vminpu=0.93 daily="IND_1_DU"
 
New "Load.BT_1115_M1" bus1="UC7113.1.4" phases=1 conn=delta model=2 kv=0.22 kw = 897.8287744328801 pf=0.92 status=variable vmaxpu=1.5 vminpu=0.93 daily="RES_2_DU" 
New "Load.BT_1115_M2" bus1="UC7113.1.4" phases=1 conn=delta model=3 kv=0.22 kw = 897.8287744328801 pf=0.92 status=variable vmaxpu=1.5 vminpu=0.93 daily="RES_2_DU"
 
New "Load.BT_7226_M1" bus1="UC9718.1.4" phases=1 conn=delta model=2 kv=0.22 kw = 384.7837604712343 pf=0.92 status=variable vmaxpu=1.5 vminpu=0.93 daily="RES_2_DU" 
New "Load.BT_7226_M2" bus1="UC9718.1.4" phases=1 conn=delta model=3 kv=0.22 kw = 384.7837604712343 pf=0.92 status=variable vmaxpu=1.5 vminpu=0.93 daily="RES_2_DU"
 
New "Load.BT_7764_M1" bus1="UC10594.3.1.4" phases=2 conn=delta model=2 kv=0.38 kw = 586.2967857195671 pf=0.92 status=variable vmaxpu=1.5 vminpu=0.93 daily="RES_11_DU" 
New "Load.BT_7764_M2" bus1="UC10594.3.1.4" phases=2 conn=delta model=3 kv=0.38 kw = 586.2967857195671 pf=0.92 status=variable vmaxpu=1.5 vminpu=0.93 daily="RES_11_DU"
 
New "Load.BT_1983_M1" bus1="UC15149.1.2.4" phases=2 conn=delta model=2 kv=0.38 kw = 646.2393925863037 pf=0.92 status=variable vmaxpu=1.5 vminpu=0.93 daily="RES_2_DU" 
New "Load.BT_1983_M2" bus1="UC15149.1.2.4" phases=2 conn=delta model=3 kv=0.38 kw = 646.2393925863037 pf=0.92 status=variable vmaxpu=1.5 vminpu=0.93 daily="RES_2_DU"
 
New "Load.BT_6423_M1" bus1="UC13667.1.2.3.4" phases=3 conn=delta model=2 kv=0.38 kw = 918.8297662914055 pf=0.92 status=variable vmaxpu=1.5 vminpu=0.93 daily="RES_7_DU" 
New "Load.BT_6423_M2" bus1="UC13667.1.2.3.4" phases=3 conn=delta model=3 kv=0.38 kw = 918.8297662914055 pf=0.92 status=variable vmaxpu=1.5 vminpu=0.93 daily="RES_7_DU"
 
New "Load.BT_6614_M1" bus1="UC15154.3.4" phases=1 conn=delta model=2 kv=0.22 kw = 1463.504913905641 pf=0.92 status=variable vmaxpu=1.5 vminpu=0.93 daily="RES_1_DU" 
New "Load.BT_6614_M2" bus1="UC15154.3.4" phases=1 conn=delta model=3 kv=0.22 kw = 1463.504913905641 pf=0.92 status=variable vmaxpu=1.5 vminpu=0.93 daily="RES_1_DU"
 
New "Load.BT_8374_M1" bus1="UC15150.1.2.3.4" phases=3 conn=delta model=2 kv=0.38 kw = 843.5643979561675 pf=0.92 status=variable vmaxpu=1.5 vminpu=0.93 daily="RES_2_DU" 
New "Load.BT_8374_M2" bus1="UC15150.1.2.3.4" phases=3 conn=delta model=3 kv=0.38 kw = 843.5643979561675 pf=0.92 status=variable vmaxpu=1.5 vminpu=0.93 daily="RES_2_DU"
 
New "Load.BT_3034_M1" bus1="UC14783.1.2.3.4" phases=3 conn=delta model=2 kv=0.38 kw = 261.4556321150694 pf=0.92 status=variable vmaxpu=1.5 vminpu=0.93 daily="RES_2_DU" 
New "Load.BT_3034_M2" bus1="UC14783.1.2.3.4" phases=3 conn=delta model=3 kv=0.38 kw = 261.4556321150694 pf=0.92 status=variable vmaxpu=1.5 vminpu=0.93 daily="RES_2_DU"
 
New "Load.BT_1488_M1" bus1="UC10551.2.4" phases=1 conn=delta model=2 kv=0.22 kw = 411.8920456637465 pf=0.92 status=variable vmaxpu=1.5 vminpu=0.93 daily="RES_11_DU" 
New "Load.BT_1488_M2" bus1="UC10551.2.4" phases=1 conn=delta model=3 kv=0.22 kw = 411.8920456637465 pf=0.92 status=variable vmaxpu=1.5 vminpu=0.93 daily="RES_11_DU"
 
New "Load.BT_927_M1" bus1="UC15130.3.4" phases=1 conn=delta model=2 kv=0.22 kw = 36.55365962401197 pf=0.92 status=variable vmaxpu=1.5 vminpu=0.93 daily="COM_1_DU" 
New "Load.BT_927_M2" bus1="UC15130.3.4" phases=1 conn=delta model=3 kv=0.22 kw = 36.55365962401197 pf=0.92 status=variable vmaxpu=1.5 vminpu=0.93 daily="COM_1_DU"
 
New "Load.BT_15_M1" bus1="UC11345.3.4" phases=1 conn=delta model=2 kv=0.22 kw = 109.79235586924479 pf=0.92 status=variable vmaxpu=1.5 vminpu=0.93 daily="RES_8_DU" 
New "Load.BT_15_M2" bus1="UC11345.3.4" phases=1 conn=delta model=3 kv=0.22 kw = 109.79235586924479 pf=0.92 status=variable vmaxpu=1.5 vminpu=0.93 daily="RES_8_DU"
 
New "Load.BT_6637_M1" bus1="UC1871.2.4" phases=1 conn=delta model=2 kv=0.22 kw = 866.0204379115693 pf=0.92 status=variable vmaxpu=1.5 vminpu=0.93 daily="RES_13_DU" 
New "Load.BT_6637_M2" bus1="UC1871.2.4" phases=1 conn=delta model=3 kv=0.22 kw = 866.0204379115693 pf=0.92 status=variable vmaxpu=1.5 vminpu=0.93 daily="RES_13_DU"
 
New "Load.BT_387_M1" bus1="UC15581.1.2.3.4" phases=3 conn=delta model=2 kv=0.38 kw = 879.7189170115465 pf=0.92 status=variable vmaxpu=1.5 vminpu=0.93 daily="RES_3_DU" 
New "Load.BT_387_M2" bus1="UC15581.1.2.3.4" phases=3 conn=delta model=3 kv=0.38 kw = 879.7189170115465 pf=0.92 status=variable vmaxpu=1.5 vminpu=0.93 daily="RES_3_DU"
 
New "Load.BT_8263_M1" bus1="UC14653.1.2.3.4" phases=3 conn=delta model=2 kv=0.38 kw = 1981.9549718554256 pf=0.92 status=variable vmaxpu=1.5 vminpu=0.93 daily="RES_3_DU" 
New "Load.BT_8263_M2" bus1="UC14653.1.2.3.4" phases=3 conn=delta model=3 kv=0.38 kw = 1981.9549718554256 pf=0.92 status=variable vmaxpu=1.5 vminpu=0.93 daily="RES_3_DU"
 
New "Load.BT_1454_M1" bus1="UC8216.3.4" phases=1 conn=delta model=2 kv=0.22 kw = 595.1039732725168 pf=0.92 status=variable vmaxpu=1.5 vminpu=0.93 daily="RES_3_DU" 
New "Load.BT_1454_M2" bus1="UC8216.3.4" phases=1 conn=delta model=3 kv=0.22 kw = 595.1039732725168 pf=0.92 status=variable vmaxpu=1.5 vminpu=0.93 daily="RES_3_DU"
 
New "Load.BT_1314_M1" bus1="UC16125.1.2.3.4" phases=3 conn=delta model=2 kv=0.38 kw = 140.37676985007585 pf=0.92 status=variable vmaxpu=1.5 vminpu=0.93 daily="RES_7_DU" 
New "Load.BT_1314_M2" bus1="UC16125.1.2.3.4" phases=3 conn=delta model=3 kv=0.38 kw = 140.37676985007585 pf=0.92 status=variable vmaxpu=1.5 vminpu=0.93 daily="RES_7_DU"
 
New "Load.BT_8044_M1" bus1="UC16120.1.2.3.4" phases=3 conn=delta model=2 kv=0.38 kw = 12321.239655320544 pf=0.92 status=variable vmaxpu=1.5 vminpu=0.93 daily="RES_3_DU" 
New "Load.BT_8044_M2" bus1="UC16120.1.2.3.4" phases=3 conn=delta model=3 kv=0.38 kw = 12321.239655320544 pf=0.92 status=variable vmaxpu=1.5 vminpu=0.93 daily="RES_3_DU"
 
New "Load.BT_6919_M1" bus1="UC16117.1.4" phases=1 conn=delta model=2 kv=0.22 kw = 1314.4035583584284 pf=0.92 status=variable vmaxpu=1.5 vminpu=0.93 daily="RES_3_DU" 
New "Load.BT_6919_M2" bus1="UC16117.1.4" phases=1 conn=delta model=3 kv=0.22 kw = 1314.4035583584284 pf=0.92 status=variable vmaxpu=1.5 vminpu=0.93 daily="RES_3_DU"
 
New "Load.BT_1445_M1" bus1="UC2901.2.4" phases=1 conn=delta model=2 kv=0.22 kw = 1050.4878832549643 pf=0.92 status=variable vmaxpu=1.5 vminpu=0.93 daily="RES_3_DU" 
New "Load.BT_1445_M2" bus1="UC2901.2.4" phases=1 conn=delta model=3 kv=0.22 kw = 1050.4878832549643 pf=0.92 status=variable vmaxpu=1.5 vminpu=0.93 daily="RES_3_DU"
 
New "Load.BT_3107_M1" bus1="UC8431.2.4" phases=1 conn=delta model=2 kv=0.22 kw = 1236.7813009750566 pf=0.92 status=variable vmaxpu=1.5 vminpu=0.93 daily="RES_3_DU" 
New "Load.BT_3107_M2" bus1="UC8431.2.4" phases=1 conn=delta model=3 kv=0.22 kw = 1236.7813009750566 pf=0.92 status=variable vmaxpu=1.5 vminpu=0.93 daily="RES_3_DU"
 
New "Load.BT_8422_M1" bus1="UC16128.1.4" phases=1 conn=delta model=2 kv=0.22 kw = 51.046098127300304 pf=0.92 status=variable vmaxpu=1.5 vminpu=0.93 daily="RES_7_DU" 
New "Load.BT_8422_M2" bus1="UC16128.1.4" phases=1 conn=delta model=3 kv=0.22 kw = 51.046098127300304 pf=0.92 status=variable vmaxpu=1.5 vminpu=0.93 daily="RES_7_DU"
 
New "Load.BT_8514_M1" bus1="UC15685.1.2.3.4" phases=3 conn=delta model=2 kv=0.38 kw = 348.9212964110234 pf=0.92 status=variable vmaxpu=1.5 vminpu=0.93 daily="COM_1_DU" 
New "Load.BT_8514_M2" bus1="UC15685.1.2.3.4" phases=3 conn=delta model=3 kv=0.38 kw = 348.9212964110234 pf=0.92 status=variable vmaxpu=1.5 vminpu=0.93 daily="COM_1_DU"
 
New "Load.BT_2932_M1" bus1="UC10153.2.4" phases=1 conn=delta model=2 kv=0.22 kw = 596.9081412438378 pf=0.92 status=variable vmaxpu=1.5 vminpu=0.93 daily="RES_2_DU" 
New "Load.BT_2932_M2" bus1="UC10153.2.4" phases=1 conn=delta model=3 kv=0.22 kw = 596.9081412438378 pf=0.92 status=variable vmaxpu=1.5 vminpu=0.93 daily="RES_2_DU"
 
New "Load.BT_7928_M1" bus1="UC15838.2.4" phases=1 conn=delta model=2 kv=0.22 kw = 4.933125134246594 pf=0.92 status=variable vmaxpu=1.5 vminpu=0.93 daily="RES_2_DU" 
New "Load.BT_7928_M2" bus1="UC15838.2.4" phases=1 conn=delta model=3 kv=0.22 kw = 4.933125134246594 pf=0.92 status=variable vmaxpu=1.5 vminpu=0.93 daily="RES_2_DU"
 
New "Load.BT_7378_M1" bus1="UC15839.2.3.4" phases=2 conn=delta model=2 kv=0.38 kw = 18.578118500310044 pf=0.92 status=variable vmaxpu=1.5 vminpu=0.93 daily="RES_9_DU" 
New "Load.BT_7378_M2" bus1="UC15839.2.3.4" phases=2 conn=delta model=3 kv=0.38 kw = 18.578118500310044 pf=0.92 status=variable vmaxpu=1.5 vminpu=0.93 daily="RES_9_DU"
 
New "Load.BT_2395_M1" bus1="UC14029.1.4" phases=1 conn=delta model=2 kv=0.22 kw = 804.0993968821948 pf=0.92 status=variable vmaxpu=1.5 vminpu=0.93 daily="RES_2_DU" 
New "Load.BT_2395_M2" bus1="UC14029.1.4" phases=1 conn=delta model=3 kv=0.22 kw = 804.0993968821948 pf=0.92 status=variable vmaxpu=1.5 vminpu=0.93 daily="RES_2_DU"
 
New "Load.BT_8159_M1" bus1="UC15841.2.4" phases=1 conn=delta model=2 kv=0.22 kw = 13.346458994155615 pf=0.92 status=variable vmaxpu=1.5 vminpu=0.93 daily="RES_4_DU" 
New "Load.BT_8159_M2" bus1="UC15841.2.4" phases=1 conn=delta model=3 kv=0.22 kw = 13.346458994155615 pf=0.92 status=variable vmaxpu=1.5 vminpu=0.93 daily="RES_4_DU"
 
New "Load.BT_1678_M1" bus1="UC358.3.1.4" phases=2 conn=delta model=2 kv=0.38 kw = 1048.4254192159797 pf=0.92 status=variable vmaxpu=1.5 vminpu=0.93 daily="COM_1_DU" 
New "Load.BT_1678_M2" bus1="UC358.3.1.4" phases=2 conn=delta model=3 kv=0.38 kw = 1048.4254192159797 pf=0.92 status=variable vmaxpu=1.5 vminpu=0.93 daily="COM_1_DU"
 
New "Load.BT_474_M1" bus1="UC6892.2.4" phases=1 conn=delta model=2 kv=0.22 kw = 335.4525091287683 pf=0.92 status=variable vmaxpu=1.5 vminpu=0.93 daily="RES_2_DU" 
New "Load.BT_474_M2" bus1="UC6892.2.4" phases=1 conn=delta model=3 kv=0.22 kw = 335.4525091287683 pf=0.92 status=variable vmaxpu=1.5 vminpu=0.93 daily="RES_2_DU"
 
New "Load.BT_3034_M1" bus1="UC14783.1.2.3.4" phases=3 conn=delta model=2 kv=0.38 kw = 379.8506353369877 pf=0.92 status=variable vmaxpu=1.5 vminpu=0.93 daily="RES_2_DU" 
New "Load.BT_3034_M2" bus1="UC14783.1.2.3.4" phases=3 conn=delta model=3 kv=0.38 kw = 379.8506353369877 pf=0.92 status=variable vmaxpu=1.5 vminpu=0.93 daily="RES_2_DU"
 
New "Load.BT_7427_M1" bus1="UC15490.2.4" phases=1 conn=delta model=2 kv=0.22 kw = 897.8287744328801 pf=0.92 status=variable vmaxpu=1.5 vminpu=0.93 daily="RES_2_DU" 
New "Load.BT_7427_M2" bus1="UC15490.2.4" phases=1 conn=delta model=3 kv=0.22 kw = 897.8287744328801 pf=0.92 status=variable vmaxpu=1.5 vminpu=0.93 daily="RES_2_DU"
 
New "Load.BT_6397_M1" bus1="UC15492.1.2.3.4" phases=3 conn=delta model=2 kv=0.38 kw = 138.12750375890462 pf=0.92 status=variable vmaxpu=1.5 vminpu=0.93 daily="RES_2_DU" 
New "Load.BT_6397_M2" bus1="UC15492.1.2.3.4" phases=3 conn=delta model=3 kv=0.38 kw = 138.12750375890462 pf=0.92 status=variable vmaxpu=1.5 vminpu=0.93 daily="RES_2_DU"
 
New "Load.BT_855_M1" bus1="UC15495.1.2.3.4" phases=3 conn=delta model=2 kv=0.38 kw = 229.29113764152964 pf=0.92 status=variable vmaxpu=1.5 vminpu=0.93 daily="COM_1_DU" 
New "Load.BT_855_M2" bus1="UC15495.1.2.3.4" phases=3 conn=delta model=3 kv=0.38 kw = 229.29113764152964 pf=0.92 status=variable vmaxpu=1.5 vminpu=0.93 daily="COM_1_DU"
 
New "Load.BT_937_M1" bus1="UC15493.2.4" phases=1 conn=delta model=2 kv=0.22 kw = 774.5006460767153 pf=0.92 status=variable vmaxpu=1.5 vminpu=0.93 daily="RES_2_DU" 
New "Load.BT_937_M2" bus1="UC15493.2.4" phases=1 conn=delta model=3 kv=0.22 kw = 774.5006460767153 pf=0.92 status=variable vmaxpu=1.5 vminpu=0.93 daily="RES_2_DU"
 
New "Load.BT_7261_M1" bus1="UC15496.3.4" phases=1 conn=delta model=2 kv=0.38 kw = 572.2425155726048 pf=0.92 status=variable vmaxpu=1.5 vminpu=0.93 daily="RES_2_DU" 
New "Load.BT_7261_M2" bus1="UC15496.3.4" phases=1 conn=delta model=3 kv=0.38 kw = 572.2425155726048 pf=0.92 status=variable vmaxpu=1.5 vminpu=0.93 daily="RES_2_DU"
 
New "Load.BT_358_M1" bus1="UC14400.1.4" phases=1 conn=delta model=2 kv=0.22 kw = 404.5162610082207 pf=0.92 status=variable vmaxpu=1.5 vminpu=0.93 daily="RES_2_DU" 
New "Load.BT_358_M2" bus1="UC14400.1.4" phases=1 conn=delta model=3 kv=0.22 kw = 404.5162610082207 pf=0.92 status=variable vmaxpu=1.5 vminpu=0.93 daily="RES_2_DU"
 
New "Load.BT_490_M1" bus1="UC6077.1.4" phases=1 conn=delta model=2 kv=0.22 kw = 636.3731423178106 pf=0.92 status=variable vmaxpu=1.5 vminpu=0.93 daily="RES_2_DU" 
New "Load.BT_490_M2" bus1="UC6077.1.4" phases=1 conn=delta model=3 kv=0.22 kw = 636.3731423178106 pf=0.92 status=variable vmaxpu=1.5 vminpu=0.93 daily="RES_2_DU"
 
New "Load.BT_1862_M1" bus1="UC7595.2.3.4" phases=2 conn=delta model=2 kv=0.38 kw = 1831.2787703168983 pf=0.92 status=variable vmaxpu=1.5 vminpu=0.93 daily="RES_7_DU" 
New "Load.BT_1862_M2" bus1="UC7595.2.3.4" phases=2 conn=delta model=3 kv=0.38 kw = 1831.2787703168983 pf=0.92 status=variable vmaxpu=1.5 vminpu=0.93 daily="RES_7_DU"
 
New "Load.BT_1488_M1" bus1="UC10551.3.4" phases=1 conn=delta model=2 kv=0.22 kw = 564.032350818824 pf=0.92 status=variable vmaxpu=1.5 vminpu=0.93 daily="RES_11_DU" 
New "Load.BT_1488_M2" bus1="UC10551.3.4" phases=1 conn=delta model=3 kv=0.22 kw = 564.032350818824 pf=0.92 status=variable vmaxpu=1.5 vminpu=0.93 daily="RES_11_DU"
 
New "Load.BT_2624_M1" bus1="UC8865.3.4" phases=1 conn=delta model=2 kv=0.22 kw = 745.978000973332 pf=0.92 status=variable vmaxpu=1.5 vminpu=0.93 daily="RES_13_DU" 
New "Load.BT_2624_M2" bus1="UC8865.3.4" phases=1 conn=delta model=3 kv=0.22 kw = 745.978000973332 pf=0.92 status=variable vmaxpu=1.5 vminpu=0.93 daily="RES_13_DU"
 
New "Load.BT_1840_M1" bus1="UC5847.2.4" phases=1 conn=delta model=2 kv=0.22 kw = 1213.548783024662 pf=0.92 status=variable vmaxpu=1.5 vminpu=0.93 daily="RES_2_DU" 
New "Load.BT_1840_M2" bus1="UC5847.2.4" phases=1 conn=delta model=3 kv=0.22 kw = 1213.548783024662 pf=0.92 status=variable vmaxpu=1.5 vminpu=0.93 daily="RES_2_DU"
 
New "Load.BT_1452_M1" bus1="UC8287.2.4" phases=1 conn=delta model=2 kv=0.22 kw = 1251.1320771309552 pf=0.92 status=variable vmaxpu=1.5 vminpu=0.93 daily="COM_1_DU" 
New "Load.BT_1452_M2" bus1="UC8287.2.4" phases=1 conn=delta model=3 kv=0.22 kw = 1251.1320771309552 pf=0.92 status=variable vmaxpu=1.5 vminpu=0.93 daily="COM_1_DU"
 
New "Load.BT_3034_M1" bus1="UC14783.1.2.3.4" phases=3 conn=delta model=2 kv=0.38 kw = 345.31875939726154 pf=0.92 status=variable vmaxpu=1.5 vminpu=0.93 daily="RES_2_DU" 
New "Load.BT_3034_M2" bus1="UC14783.1.2.3.4" phases=3 conn=delta model=3 kv=0.38 kw = 345.31875939726154 pf=0.92 status=variable vmaxpu=1.5 vminpu=0.93 daily="RES_2_DU"
 
New "Load.BT_929_M1" bus1="UC8105.2.4" phases=1 conn=delta model=2 kv=0.22 kw = 66.4611993163854 pf=0.92 status=variable vmaxpu=1.5 vminpu=0.93 daily="COM_1_DU" 
New "Load.BT_929_M2" bus1="UC8105.2.4" phases=1 conn=delta model=3 kv=0.22 kw = 66.4611993163854 pf=0.92 status=variable vmaxpu=1.5 vminpu=0.93 daily="COM_1_DU"
 
New "Load.BT_3034_M1" bus1="UC14783.1.2.3.4" phases=3 conn=delta model=2 kv=0.38 kw = 1405.8270140510583 pf=0.92 status=variable vmaxpu=1.5 vminpu=0.93 daily="RES_4_DU" 
New "Load.BT_3034_M2" bus1="UC14783.1.2.3.4" phases=3 conn=delta model=3 kv=0.38 kw = 1405.8270140510583 pf=0.92 status=variable vmaxpu=1.5 vminpu=0.93 daily="RES_4_DU"
 
New "Load.BT_8197_M1" bus1="UC11184.3.4" phases=1 conn=delta model=2 kv=0.22 kw = 445.2886980148611 pf=0.92 status=variable vmaxpu=1.5 vminpu=0.93 daily="RES_11_DU" 
New "Load.BT_8197_M2" bus1="UC11184.3.4" phases=1 conn=delta model=3 kv=0.22 kw = 445.2886980148611 pf=0.92 status=variable vmaxpu=1.5 vminpu=0.93 daily="RES_11_DU"
 
New "Load.BT_3010_M1" bus1="UC14890.1.2.3.4" phases=3 conn=delta model=2 kv=0.38 kw = 1154.9179701301694 pf=0.92 status=variable vmaxpu=1.5 vminpu=0.93 daily="RES_7_DU" 
New "Load.BT_3010_M2" bus1="UC14890.1.2.3.4" phases=3 conn=delta model=3 kv=0.38 kw = 1154.9179701301694 pf=0.92 status=variable vmaxpu=1.5 vminpu=0.93 daily="RES_7_DU"
 
New "Load.BT_377_M1" bus1="UC15109.1.4" phases=1 conn=delta model=2 kv=0.22 kw = 739.6775738151254 pf=0.92 status=variable vmaxpu=1.5 vminpu=0.93 daily="RES_1_DU" 
New "Load.BT_377_M2" bus1="UC15109.1.4" phases=1 conn=delta model=3 kv=0.22 kw = 739.6775738151254 pf=0.92 status=variable vmaxpu=1.5 vminpu=0.93 daily="RES_1_DU"
 
New "Load.BT_1750_M1" bus1="UC10549.2.4" phases=1 conn=delta model=2 kv=0.22 kw = 6.64611993163854 pf=0.92 status=variable vmaxpu=1.5 vminpu=0.93 daily="COM_1_DU" 
New "Load.BT_1750_M2" bus1="UC10549.2.4" phases=1 conn=delta model=3 kv=0.22 kw = 6.64611993163854 pf=0.92 status=variable vmaxpu=1.5 vminpu=0.93 daily="COM_1_DU"
 
New "Load.BT_639_M1" bus1="UC15090.3.4" phases=1 conn=delta model=2 kv=0.22 kw = 745.1736708803688 pf=0.92 status=variable vmaxpu=1.5 vminpu=0.93 daily="RES_3_DU" 
New "Load.BT_639_M2" bus1="UC15090.3.4" phases=1 conn=delta model=3 kv=0.22 kw = 745.1736708803688 pf=0.92 status=variable vmaxpu=1.5 vminpu=0.93 daily="RES_3_DU"
 
New "Load.BT_2214_M1" bus1="UC11074.2.4" phases=1 conn=delta model=2 kv=0.22 kw = 476.08317861801345 pf=0.92 status=variable vmaxpu=1.5 vminpu=0.93 daily="RES_3_DU" 
New "Load.BT_2214_M2" bus1="UC11074.2.4" phases=1 conn=delta model=3 kv=0.22 kw = 476.08317861801345 pf=0.92 status=variable vmaxpu=1.5 vminpu=0.93 daily="RES_3_DU"
 
New "Load.BT_8198_M1" bus1="UC15673.2.3.4" phases=2 conn=delta model=2 kv=0.38 kw = 1531.7458790318692 pf=0.92 status=variable vmaxpu=1.5 vminpu=0.93 daily="RES_3_DU" 
New "Load.BT_8198_M2" bus1="UC15673.2.3.4" phases=2 conn=delta model=3 kv=0.38 kw = 1531.7458790318692 pf=0.92 status=variable vmaxpu=1.5 vminpu=0.93 daily="RES_3_DU"
 
New "Load.BT_6795_M1" bus1="UC14821.3.4" phases=1 conn=delta model=2 kv=0.22 kw = 501.95726441247075 pf=0.92 status=variable vmaxpu=1.5 vminpu=0.93 daily="RES_3_DU" 
New "Load.BT_6795_M2" bus1="UC14821.3.4" phases=1 conn=delta model=3 kv=0.22 kw = 501.95726441247075 pf=0.92 status=variable vmaxpu=1.5 vminpu=0.93 daily="RES_3_DU"
 
New "Load.BT_768_M1" bus1="UC12804.1.4" phases=1 conn=delta model=2 kv=0.22 kw = 393.28610407575025 pf=0.92 status=variable vmaxpu=1.5 vminpu=0.93 daily="RES_3_DU" 
New "Load.BT_768_M2" bus1="UC12804.1.4" phases=1 conn=delta model=3 kv=0.22 kw = 393.28610407575025 pf=0.92 status=variable vmaxpu=1.5 vminpu=0.93 daily="RES_3_DU"
 
New "Load.BT_539_M1" bus1="UC11814.2.4" phases=1 conn=delta model=2 kv=0.22 kw = 540.1384406308257 pf=0.92 status=variable vmaxpu=1.5 vminpu=0.93 daily="RES_6_DU" 
New "Load.BT_539_M2" bus1="UC11814.2.4" phases=1 conn=delta model=3 kv=0.22 kw = 540.1384406308257 pf=0.92 status=variable vmaxpu=1.5 vminpu=0.93 daily="RES_6_DU"
 
New "Load.BT_6846_M1" bus1="UC15821.1.2.3.4" phases=3 conn=delta model=2 kv=0.38 kw = 1874.5875510137055 pf=0.92 status=variable vmaxpu=1.5 vminpu=0.93 daily="RES_2_DU" 
New "Load.BT_6846_M2" bus1="UC15821.1.2.3.4" phases=3 conn=delta model=3 kv=0.38 kw = 1874.5875510137055 pf=0.92 status=variable vmaxpu=1.5 vminpu=0.93 daily="RES_2_DU"
 
New "Load.BT_826_M1" bus1="UC7495.2.4" phases=1 conn=delta model=2 kv=0.22 kw = 749.3500222922455 pf=0.92 status=variable vmaxpu=1.5 vminpu=0.93 daily="COM_1_DU" 
New "Load.BT_826_M2" bus1="UC7495.2.4" phases=1 conn=delta model=3 kv=0.22 kw = 749.3500222922455 pf=0.92 status=variable vmaxpu=1.5 vminpu=0.93 daily="COM_1_DU"
 
New "Load.BT_84_M1" bus1="UC5102.3.4" phases=1 conn=delta model=2 kv=0.22 kw = 495.4989000828235 pf=0.92 status=variable vmaxpu=1.5 vminpu=0.93 daily="RES_6_DU" 
New "Load.BT_84_M2" bus1="UC5102.3.4" phases=1 conn=delta model=3 kv=0.22 kw = 495.4989000828235 pf=0.92 status=variable vmaxpu=1.5 vminpu=0.93 daily="RES_6_DU"
 
New "Load.BT_2347_M1" bus1="UC1753.3.4" phases=1 conn=delta model=2 kv=0.22 kw = 2062.0463061150763 pf=0.92 status=variable vmaxpu=1.5 vminpu=0.93 daily="RES_2_DU" 
New "Load.BT_2347_M2" bus1="UC1753.3.4" phases=1 conn=delta model=3 kv=0.22 kw = 2062.0463061150763 pf=0.92 status=variable vmaxpu=1.5 vminpu=0.93 daily="RES_2_DU"
 
New "Load.BT_8197_M1" bus1="UC11184.3.4" phases=1 conn=delta model=2 kv=0.22 kw = 157.91400725263537 pf=0.92 status=variable vmaxpu=1.5 vminpu=0.93 daily="RES_9_DU" 
New "Load.BT_8197_M2" bus1="UC11184.3.4" phases=1 conn=delta model=3 kv=0.22 kw = 157.91400725263537 pf=0.92 status=variable vmaxpu=1.5 vminpu=0.93 daily="RES_9_DU"
 
New "Load.BT_2623_M1" bus1="UC15510.1.2.3.4" phases=3 conn=delta model=2 kv=0.38 kw = 9.437674813925213 pf=0.92 status=variable vmaxpu=1.5 vminpu=0.93 daily="COM_12_DU" 
New "Load.BT_2623_M2" bus1="UC15510.1.2.3.4" phases=3 conn=delta model=3 kv=0.38 kw = 9.437674813925213 pf=0.92 status=variable vmaxpu=1.5 vminpu=0.93 daily="COM_12_DU"
 
New "Load.BT_8426_M1" bus1="UC15793.1.2.3.4" phases=3 conn=delta model=2 kv=0.38 kw = 304.05998687246324 pf=0.92 status=variable vmaxpu=1.5 vminpu=0.93 daily="COM_1_DU" 
New "Load.BT_8426_M2" bus1="UC15793.1.2.3.4" phases=3 conn=delta model=3 kv=0.38 kw = 304.05998687246324 pf=0.92 status=variable vmaxpu=1.5 vminpu=0.93 daily="COM_1_DU"
 
New "Load.BT_7702_M1" bus1="UC15796.3.4" phases=1 conn=delta model=2 kv=0.22 kw = 29.598750805479565 pf=0.92 status=variable vmaxpu=1.5 vminpu=0.93 daily="RES_2_DU" 
New "Load.BT_7702_M2" bus1="UC15796.3.4" phases=1 conn=delta model=3 kv=0.22 kw = 29.598750805479565 pf=0.92 status=variable vmaxpu=1.5 vminpu=0.93 daily="RES_2_DU"
 
New "Load.BT_236_M1" bus1="UC15798.1.2.3.4" phases=3 conn=delta model=2 kv=0.38 kw = 39.938881964625814 pf=0.92 status=variable vmaxpu=1.5 vminpu=0.93 daily="RES_12_DU" 
New "Load.BT_236_M2" bus1="UC15798.1.2.3.4" phases=3 conn=delta model=3 kv=0.38 kw = 39.938881964625814 pf=0.92 status=variable vmaxpu=1.5 vminpu=0.93 daily="RES_12_DU"
 
New "Load.BT_146_M1" bus1="UC10578.1.4" phases=1 conn=delta model=2 kv=0.22 kw = 1110.2526342687815 pf=0.92 status=variable vmaxpu=1.5 vminpu=0.93 daily="RES_7_DU" 
New "Load.BT_146_M2" bus1="UC10578.1.4" phases=1 conn=delta model=3 kv=0.22 kw = 1110.2526342687815 pf=0.92 status=variable vmaxpu=1.5 vminpu=0.93 daily="RES_7_DU"
 
New "Load.BT_3019_M1" bus1="UC9738.1.4" phases=1 conn=delta model=2 kv=0.22 kw = 749.9442812064356 pf=0.92 status=variable vmaxpu=1.5 vminpu=0.93 daily="RES_6_DU" 
New "Load.BT_3019_M2" bus1="UC9738.1.4" phases=1 conn=delta model=3 kv=0.22 kw = 749.9442812064356 pf=0.92 status=variable vmaxpu=1.5 vminpu=0.93 daily="RES_6_DU"
 
New "Load.BT_2092_M1" bus1="UC6242.2.4" phases=1 conn=delta model=2 kv=0.22 kw = 261.4556321150694 pf=0.92 status=variable vmaxpu=1.5 vminpu=0.93 daily="RES_2_DU" 
New "Load.BT_2092_M2" bus1="UC6242.2.4" phases=1 conn=delta model=3 kv=0.22 kw = 261.4556321150694 pf=0.92 status=variable vmaxpu=1.5 vminpu=0.93 daily="RES_2_DU"
 
New "Load.BT_539_M1" bus1="UC11814.2.4" phases=1 conn=delta model=2 kv=0.22 kw = 148.62494800248035 pf=0.92 status=variable vmaxpu=1.5 vminpu=0.93 daily="RES_9_DU" 
New "Load.BT_539_M2" bus1="UC11814.2.4" phases=1 conn=delta model=3 kv=0.22 kw = 148.62494800248035 pf=0.92 status=variable vmaxpu=1.5 vminpu=0.93 daily="RES_9_DU"
 
New "Load.BT_1424_M1" bus1="UC6619.3.4" phases=1 conn=delta model=2 kv=0.22 kw = 340.385634263015 pf=0.92 status=variable vmaxpu=1.5 vminpu=0.93 daily="RES_2_DU" 
New "Load.BT_1424_M2" bus1="UC6619.3.4" phases=1 conn=delta model=3 kv=0.22 kw = 340.385634263015 pf=0.92 status=variable vmaxpu=1.5 vminpu=0.93 daily="RES_2_DU"
 
New "Load.BT_6443_M1" bus1="UC15805.1.4" phases=1 conn=delta model=2 kv=0.22 kw = 4.933125134246594 pf=0.92 status=variable vmaxpu=1.5 vminpu=0.93 daily="RES_2_DU" 
New "Load.BT_6443_M2" bus1="UC15805.1.4" phases=1 conn=delta model=3 kv=0.22 kw = 4.933125134246594 pf=0.92 status=variable vmaxpu=1.5 vminpu=0.93 daily="RES_2_DU"
 
New "Load.BT_8141_M1" bus1="UC15807.1.2.3.4" phases=3 conn=delta model=2 kv=0.38 kw = 23000.55955341808 pf=0.92 status=variable vmaxpu=1.5 vminpu=0.93 daily="COM_1_DU" 
New "Load.BT_8141_M2" bus1="UC15807.1.2.3.4" phases=3 conn=delta model=3 kv=0.38 kw = 23000.55955341808 pf=0.92 status=variable vmaxpu=1.5 vminpu=0.93 daily="COM_1_DU"
 
New "Load.BT_296_M1" bus1="UC14335.2.4" phases=1 conn=delta model=2 kv=0.22 kw = 582.108765841098 pf=0.92 status=variable vmaxpu=1.5 vminpu=0.93 daily="RES_2_DU" 
New "Load.BT_296_M2" bus1="UC14335.2.4" phases=1 conn=delta model=3 kv=0.22 kw = 582.108765841098 pf=0.92 status=variable vmaxpu=1.5 vminpu=0.93 daily="RES_2_DU"
 
New "Load.BT_121_M1" bus1="UC12650.2.3.4" phases=2 conn=delta model=2 kv=0.38 kw = 745.8585691748923 pf=0.92 status=variable vmaxpu=1.5 vminpu=0.93 daily="RES_11_DU" 
New "Load.BT_121_M2" bus1="UC12650.2.3.4" phases=2 conn=delta model=3 kv=0.38 kw = 745.8585691748923 pf=0.92 status=variable vmaxpu=1.5 vminpu=0.93 daily="RES_11_DU"
 
New "Load.BT_12_M1" bus1="UC10383.2.4" phases=1 conn=delta model=2 kv=0.22 kw = 392.4627533190496 pf=0.92 status=variable vmaxpu=1.5 vminpu=0.93 daily="RES_9_DU" 
New "Load.BT_12_M2" bus1="UC10383.2.4" phases=1 conn=delta model=3 kv=0.22 kw = 392.4627533190496 pf=0.92 status=variable vmaxpu=1.5 vminpu=0.93 daily="RES_9_DU"
 
New "Load.BT_8263_M1" bus1="UC14653.1.2.3.4" phases=3 conn=delta model=2 kv=0.38 kw = 1218.4819081589087 pf=0.92 status=variable vmaxpu=1.5 vminpu=0.93 daily="RES_2_DU" 
New "Load.BT_8263_M2" bus1="UC14653.1.2.3.4" phases=3 conn=delta model=3 kv=0.38 kw = 1218.4819081589087 pf=0.92 status=variable vmaxpu=1.5 vminpu=0.93 daily="RES_2_DU"
 
New "Load.BT_2343_M1" bus1="UC5977.2.4" phases=1 conn=delta model=2 kv=0.22 kw = 236.79000644383652 pf=0.92 status=variable vmaxpu=1.5 vminpu=0.93 daily="RES_2_DU" 
New "Load.BT_2343_M2" bus1="UC5977.2.4" phases=1 conn=delta model=3 kv=0.22 kw = 236.79000644383652 pf=0.92 status=variable vmaxpu=1.5 vminpu=0.93 daily="RES_2_DU"
 
New "Load.BT_3034_M1" bus1="UC14783.1.2.3.4" phases=3 conn=delta model=2 kv=0.38 kw = 478.5131380219196 pf=0.92 status=variable vmaxpu=1.5 vminpu=0.93 daily="RES_2_DU" 
New "Load.BT_3034_M2" bus1="UC14783.1.2.3.4" phases=3 conn=delta model=3 kv=0.38 kw = 478.5131380219196 pf=0.92 status=variable vmaxpu=1.5 vminpu=0.93 daily="RES_2_DU"
 
New "Load.BT_684_M1" bus1="UC6236.1.2.3.4" phases=3 conn=delta model=2 kv=0.38 kw = 355.56741634266194 pf=0.92 status=variable vmaxpu=1.5 vminpu=0.93 daily="COM_1_DU" 
New "Load.BT_684_M2" bus1="UC6236.1.2.3.4" phases=3 conn=delta model=3 kv=0.38 kw = 355.56741634266194 pf=0.92 status=variable vmaxpu=1.5 vminpu=0.93 daily="COM_1_DU"
 
New "Load.BT_7327_M1" bus1="UC13253.1.2.4" phases=2 conn=delta model=2 kv=0.38 kw = 424.24876154520706 pf=0.92 status=variable vmaxpu=1.5 vminpu=0.93 daily="RES_2_DU" 
New "Load.BT_7327_M2" bus1="UC13253.1.2.4" phases=2 conn=delta model=3 kv=0.38 kw = 424.24876154520706 pf=0.92 status=variable vmaxpu=1.5 vminpu=0.93 daily="RES_2_DU"
 
New "Load.BT_1829_M1" bus1="UC15079.3.4" phases=1 conn=delta model=2 kv=0.22 kw = 575.1645682691956 pf=0.92 status=variable vmaxpu=1.5 vminpu=0.93 daily="RES_11_DU" 
New "Load.BT_1829_M2" bus1="UC15079.3.4" phases=1 conn=delta model=3 kv=0.22 kw = 575.1645682691956 pf=0.92 status=variable vmaxpu=1.5 vminpu=0.93 daily="RES_11_DU"
 
New "Load.BT_1959_M1" bus1="UC2860.2.4" phases=1 conn=delta model=2 kv=0.22 kw = 562.3762653041117 pf=0.92 status=variable vmaxpu=1.5 vminpu=0.93 daily="RES_2_DU" 
New "Load.BT_1959_M2" bus1="UC2860.2.4" phases=1 conn=delta model=3 kv=0.22 kw = 562.3762653041117 pf=0.92 status=variable vmaxpu=1.5 vminpu=0.93 daily="RES_2_DU"
 
New "Load.BT_3034_M1" bus1="UC14783.1.2.3.4" phases=3 conn=delta model=2 kv=0.38 kw = 147.9688473206063 pf=0.92 status=variable vmaxpu=1.5 vminpu=0.93 daily="RES_5_DU" 
New "Load.BT_3034_M2" bus1="UC14783.1.2.3.4" phases=3 conn=delta model=3 kv=0.38 kw = 147.9688473206063 pf=0.92 status=variable vmaxpu=1.5 vminpu=0.93 daily="RES_5_DU"
 
New "Load.BT_901_M1" bus1="UC5377.3.4" phases=1 conn=delta model=2 kv=0.22 kw = 171.70065967553802 pf=0.92 status=variable vmaxpu=1.5 vminpu=0.93 daily="COM_5_DU" 
New "Load.BT_901_M2" bus1="UC5377.3.4" phases=1 conn=delta model=3 kv=0.22 kw = 171.70065967553802 pf=0.92 status=variable vmaxpu=1.5 vminpu=0.93 daily="COM_5_DU"
 
New "Load.BT_1124_M1" bus1="UC15362.3.1.4" phases=2 conn=delta model=2 kv=0.38 kw = 776.2225738337175 pf=0.92 status=variable vmaxpu=1.5 vminpu=0.93 daily="RES_3_DU" 
New "Load.BT_1124_M2" bus1="UC15362.3.1.4" phases=2 conn=delta model=3 kv=0.38 kw = 776.2225738337175 pf=0.92 status=variable vmaxpu=1.5 vminpu=0.93 daily="RES_3_DU"
 
New "Load.BT_1124_M1" bus1="UC15362.1.2.4" phases=2 conn=delta model=2 kv=0.38 kw = 1335.1028269939943 pf=0.92 status=variable vmaxpu=1.5 vminpu=0.93 daily="RES_3_DU" 
New "Load.BT_1124_M2" bus1="UC15362.1.2.4" phases=2 conn=delta model=3 kv=0.38 kw = 1335.1028269939943 pf=0.92 status=variable vmaxpu=1.5 vminpu=0.93 daily="RES_3_DU"
 
New "Load.BT_2344_M1" bus1="UC2835.3.4" phases=1 conn=delta model=2 kv=0.22 kw = 413.985372711316 pf=0.92 status=variable vmaxpu=1.5 vminpu=0.93 daily="RES_3_DU" 
New "Load.BT_2344_M2" bus1="UC2835.3.4" phases=1 conn=delta model=3 kv=0.22 kw = 413.985372711316 pf=0.92 status=variable vmaxpu=1.5 vminpu=0.93 daily="RES_3_DU"
 
New "Load.BT_7439_M1" bus1="UC16096.2.4" phases=1 conn=delta model=2 kv=0.22 kw = 12.761524531825076 pf=0.92 status=variable vmaxpu=1.5 vminpu=0.93 daily="RES_7_DU" 
New "Load.BT_7439_M2" bus1="UC16096.2.4" phases=1 conn=delta model=3 kv=0.22 kw = 12.761524531825076 pf=0.92 status=variable vmaxpu=1.5 vminpu=0.93 daily="RES_7_DU"
 
New "Load.BT_6954_M1" bus1="UC16099.3.4" phases=1 conn=delta model=2 kv=0.22 kw = 0.0 pf=0.92 status=variable vmaxpu=1.5 vminpu=0.93 daily="COM_1_DU" 
New "Load.BT_6954_M2" bus1="UC16099.3.4" phases=1 conn=delta model=3 kv=0.22 kw = 0.0 pf=0.92 status=variable vmaxpu=1.5 vminpu=0.93 daily="COM_1_DU"
 
New "Load.BT_1112_M1" bus1="UC8981.3.4" phases=1 conn=delta model=2 kv=0.22 kw = 293.51506423197674 pf=0.92 status=variable vmaxpu=1.5 vminpu=0.93 daily="RES_7_DU" 
New "Load.BT_1112_M2" bus1="UC8981.3.4" phases=1 conn=delta model=3 kv=0.22 kw = 293.51506423197674 pf=0.92 status=variable vmaxpu=1.5 vminpu=0.93 daily="RES_7_DU"
 
New "Load.BT_2626_M1" bus1="UC16100.3.4" phases=1 conn=delta model=2 kv=0.22 kw = 393.28610407575025 pf=0.92 status=variable vmaxpu=1.5 vminpu=0.93 daily="RES_3_DU" 
New "Load.BT_2626_M2" bus1="UC16100.3.4" phases=1 conn=delta model=3 kv=0.22 kw = 393.28610407575025 pf=0.92 status=variable vmaxpu=1.5 vminpu=0.93 daily="RES_3_DU"
 
New "Load.BT_1516_M1" bus1="UC16103.3.4" phases=1 conn=delta model=2 kv=0.22 kw = 652.0269620203228 pf=0.92 status=variable vmaxpu=1.5 vminpu=0.93 daily="RES_3_DU" 
New "Load.BT_1516_M2" bus1="UC16103.3.4" phases=1 conn=delta model=3 kv=0.22 kw = 652.0269620203228 pf=0.92 status=variable vmaxpu=1.5 vminpu=0.93 daily="RES_3_DU"
 
New "Load.BT_2623_M1" bus1="UC15510.1.2.4" phases=2 conn=delta model=2 kv=0.38 kw = 890.0685513293295 pf=0.92 status=variable vmaxpu=1.5 vminpu=0.93 daily="RES_3_DU" 
New "Load.BT_2623_M2" bus1="UC15510.1.2.4" phases=2 conn=delta model=3 kv=0.38 kw = 890.0685513293295 pf=0.92 status=variable vmaxpu=1.5 vminpu=0.93 daily="RES_3_DU"
 
New "Load.BT_1124_M1" bus1="UC15362.1.2.3.4" phases=3 conn=delta model=2 kv=0.38 kw = 0.0 pf=0.92 status=variable vmaxpu=1.5 vminpu=0.93 daily="COM_5_DU" 
New "Load.BT_1124_M2" bus1="UC15362.1.2.3.4" phases=3 conn=delta model=3 kv=0.38 kw = 0.0 pf=0.92 status=variable vmaxpu=1.5 vminpu=0.93 daily="COM_5_DU"
 
New "Load.BT_2214_M1" bus1="UC11074.3.4" phases=1 conn=delta model=2 kv=0.22 kw = 214.62582459442254 pf=0.92 status=variable vmaxpu=1.5 vminpu=0.93 daily="COM_5_DU" 
New "Load.BT_2214_M2" bus1="UC11074.3.4" phases=1 conn=delta model=3 kv=0.22 kw = 214.62582459442254 pf=0.92 status=variable vmaxpu=1.5 vminpu=0.93 daily="COM_5_DU"
 
New "Load.BT_8544_M1" bus1="UC16080.2.4" phases=1 conn=delta model=2 kv=0.22 kw = 261.61125290241404 pf=0.92 status=variable vmaxpu=1.5 vminpu=0.93 daily="RES_7_DU" 
New "Load.BT_8544_M2" bus1="UC16080.2.4" phases=1 conn=delta model=3 kv=0.22 kw = 261.61125290241404 pf=0.92 status=variable vmaxpu=1.5 vminpu=0.93 daily="RES_7_DU"
 
New "Load.BT_387_M1" bus1="UC15581.1.2.3.4" phases=3 conn=delta model=2 kv=0.38 kw = 367.412018281293 pf=0.92 status=variable vmaxpu=1.5 vminpu=0.93 daily="RES_3_DU" 
New "Load.BT_387_M2" bus1="UC15581.1.2.3.4" phases=3 conn=delta model=3 kv=0.38 kw = 367.412018281293 pf=0.92 status=variable vmaxpu=1.5 vminpu=0.93 daily="RES_3_DU"
 
New "Load.BT_1113_M1" bus1="UC6951.3.4" phases=1 conn=delta model=2 kv=0.22 kw = 25.523049063650152 pf=0.92 status=variable vmaxpu=1.5 vminpu=0.93 daily="RES_7_DU" 
New "Load.BT_1113_M2" bus1="UC6951.3.4" phases=1 conn=delta model=3 kv=0.22 kw = 25.523049063650152 pf=0.92 status=variable vmaxpu=1.5 vminpu=0.93 daily="RES_7_DU"
 
New "Load.BT_539_M1" bus1="UC11814.1.2.4" phases=2 conn=delta model=2 kv=0.38 kw = 1060.8375175727474 pf=0.92 status=variable vmaxpu=1.5 vminpu=0.93 daily="RES_3_DU" 
New "Load.BT_539_M2" bus1="UC11814.1.2.4" phases=2 conn=delta model=3 kv=0.38 kw = 1060.8375175727474 pf=0.92 status=variable vmaxpu=1.5 vminpu=0.93 daily="RES_3_DU"
 
New "Load.BT_1858_M1" bus1="UC5368.1.2.3.4" phases=3 conn=delta model=2 kv=0.38 kw = 2861.673888866972 pf=0.92 status=variable vmaxpu=1.5 vminpu=0.93 daily="RES_3_DU" 
New "Load.BT_1858_M2" bus1="UC5368.1.2.3.4" phases=3 conn=delta model=3 kv=0.38 kw = 2861.673888866972 pf=0.92 status=variable vmaxpu=1.5 vminpu=0.93 daily="RES_3_DU"
 
New "Load.BT_539_M1" bus1="UC11814.3.1.4" phases=2 conn=delta model=2 kv=0.38 kw = 229.70744157285137 pf=0.92 status=variable vmaxpu=1.5 vminpu=0.93 daily="RES_7_DU" 
New "Load.BT_539_M2" bus1="UC11814.3.1.4" phases=2 conn=delta model=3 kv=0.38 kw = 229.70744157285137 pf=0.92 status=variable vmaxpu=1.5 vminpu=0.93 daily="RES_7_DU"
 
New "Load.BT_7327_M1" bus1="UC13253.1.2.4" phases=2 conn=delta model=2 kv=0.38 kw = 693.4254992914543 pf=0.92 status=variable vmaxpu=1.5 vminpu=0.93 daily="RES_3_DU" 
New "Load.BT_7327_M2" bus1="UC13253.1.2.4" phases=2 conn=delta model=3 kv=0.38 kw = 693.4254992914543 pf=0.92 status=variable vmaxpu=1.5 vminpu=0.93 daily="RES_3_DU"
 
New "Load.BT_2623_M1" bus1="UC15510.3.1.4" phases=2 conn=delta model=2 kv=0.38 kw = 6.380762265912538 pf=0.92 status=variable vmaxpu=1.5 vminpu=0.93 daily="RES_7_DU" 
New "Load.BT_2623_M2" bus1="UC15510.3.1.4" phases=2 conn=delta model=3 kv=0.38 kw = 6.380762265912538 pf=0.92 status=variable vmaxpu=1.5 vminpu=0.93 daily="RES_7_DU"
 
New "Load.BT_2215_M1" bus1="UC12303.2.4" phases=1 conn=delta model=2 kv=0.22 kw = 299.89582649788923 pf=0.92 status=variable vmaxpu=1.5 vminpu=0.93 daily="RES_7_DU" 
New "Load.BT_2215_M2" bus1="UC12303.2.4" phases=1 conn=delta model=3 kv=0.22 kw = 299.89582649788923 pf=0.92 status=variable vmaxpu=1.5 vminpu=0.93 daily="RES_7_DU"
 
New "Load.BT_358_M1" bus1="UC12262.1.4" phases=1 conn=delta model=2 kv=0.22 kw = 12.761524531825076 pf=0.92 status=variable vmaxpu=1.5 vminpu=0.93 daily="RES_7_DU" 
New "Load.BT_358_M2" bus1="UC12262.1.4" phases=1 conn=delta model=3 kv=0.22 kw = 12.761524531825076 pf=0.92 status=variable vmaxpu=1.5 vminpu=0.93 daily="RES_7_DU"
 
New "Load.BT_555_M1" bus1="UC15769.2.4" phases=1 conn=delta model=2 kv=0.22 kw = 759.7012706739754 pf=0.92 status=variable vmaxpu=1.5 vminpu=0.93 daily="RES_2_DU" 
New "Load.BT_555_M2" bus1="UC15769.2.4" phases=1 conn=delta model=3 kv=0.22 kw = 759.7012706739754 pf=0.92 status=variable vmaxpu=1.5 vminpu=0.93 daily="RES_2_DU"
 
New "Load.BT_1430_M1" bus1="UC9154.3.4" phases=1 conn=delta model=2 kv=0.22 kw = 1181.3478178487505 pf=0.92 status=variable vmaxpu=1.5 vminpu=0.93 daily="COM_1_DU" 
New "Load.BT_1430_M2" bus1="UC9154.3.4" phases=1 conn=delta model=3 kv=0.22 kw = 1181.3478178487505 pf=0.92 status=variable vmaxpu=1.5 vminpu=0.93 daily="COM_1_DU"
 
New "Load.BT_2920_M1" bus1="UC15771.1.2.3.4" phases=3 conn=delta model=2 kv=0.38 kw = 1209.5938275582143 pf=0.92 status=variable vmaxpu=1.5 vminpu=0.93 daily="COM_1_DU" 
New "Load.BT_2920_M2" bus1="UC15771.1.2.3.4" phases=3 conn=delta model=3 kv=0.38 kw = 1209.5938275582143 pf=0.92 status=variable vmaxpu=1.5 vminpu=0.93 daily="COM_1_DU"
 
New "Load.BT_7655_M1" bus1="UC15774.1.4" phases=1 conn=delta model=2 kv=0.22 kw = 690.6375187945231 pf=0.92 status=variable vmaxpu=1.5 vminpu=0.93 daily="RES_2_DU" 
New "Load.BT_7655_M2" bus1="UC15774.1.4" phases=1 conn=delta model=3 kv=0.22 kw = 690.6375187945231 pf=0.92 status=variable vmaxpu=1.5 vminpu=0.93 daily="RES_2_DU"
 
New "Load.BT_1880_M1" bus1="UC5019.1.4" phases=1 conn=delta model=2 kv=0.22 kw = 784.3668963452084 pf=0.92 status=variable vmaxpu=1.5 vminpu=0.93 daily="RES_2_DU" 
New "Load.BT_1880_M2" bus1="UC5019.1.4" phases=1 conn=delta model=3 kv=0.22 kw = 784.3668963452084 pf=0.92 status=variable vmaxpu=1.5 vminpu=0.93 daily="RES_2_DU"
 
New "Load.BT_1209_M1" bus1="UC15445.3.4" phases=1 conn=delta model=2 kv=0.22 kw = 532.7775144986322 pf=0.92 status=variable vmaxpu=1.5 vminpu=0.93 daily="RES_2_DU" 
New "Load.BT_1209_M2" bus1="UC15445.3.4" phases=1 conn=delta model=3 kv=0.22 kw = 532.7775144986322 pf=0.92 status=variable vmaxpu=1.5 vminpu=0.93 daily="RES_2_DU"
 
New "Load.BT_2215_M1" bus1="UC7160.1.4" phases=1 conn=delta model=2 kv=0.22 kw = 250.8910274193549 pf=0.92 status=variable vmaxpu=1.5 vminpu=0.93 daily="COM_1_DU" 
New "Load.BT_2215_M2" bus1="UC7160.1.4" phases=1 conn=delta model=3 kv=0.22 kw = 250.8910274193549 pf=0.92 status=variable vmaxpu=1.5 vminpu=0.93 daily="COM_1_DU"
 
New "Load.BT_628_M1" bus1="UC7914.1.4" phases=1 conn=delta model=2 kv=0.22 kw = 68.12272929929503 pf=0.92 status=variable vmaxpu=1.5 vminpu=0.93 daily="COM_1_DU" 
New "Load.BT_628_M2" bus1="UC7914.1.4" phases=1 conn=delta model=3 kv=0.22 kw = 68.12272929929503 pf=0.92 status=variable vmaxpu=1.5 vminpu=0.93 daily="COM_1_DU"
 
New "Load.BT_1234_M1" bus1="UC15448.1.4" phases=1 conn=delta model=2 kv=0.22 kw = 0.0 pf=0.92 status=variable vmaxpu=1.5 vminpu=0.93 daily="RES_2_DU" 
New "Load.BT_1234_M2" bus1="UC15448.1.4" phases=1 conn=delta model=3 kv=0.22 kw = 0.0 pf=0.92 status=variable vmaxpu=1.5 vminpu=0.93 daily="RES_2_DU"
 
New "Load.BT_1380_M1" bus1="UC10064.3.4" phases=1 conn=delta model=2 kv=0.22 kw = 497.23904611659486 pf=0.92 status=variable vmaxpu=1.5 vminpu=0.93 daily="RES_11_DU" 
New "Load.BT_1380_M2" bus1="UC10064.3.4" phases=1 conn=delta model=3 kv=0.22 kw = 497.23904611659486 pf=0.92 status=variable vmaxpu=1.5 vminpu=0.93 daily="RES_11_DU"
 
New "Load.BT_785_M1" bus1="UC9638.3.4" phases=1 conn=delta model=2 kv=0.22 kw = 1415.9542127318114 pf=0.92 status=variable vmaxpu=1.5 vminpu=0.93 daily="RES_1_DU" 
New "Load.BT_785_M2" bus1="UC9638.3.4" phases=1 conn=delta model=3 kv=0.22 kw = 1415.9542127318114 pf=0.92 status=variable vmaxpu=1.5 vminpu=0.93 daily="RES_1_DU"
 
New "Load.BT_7701_M1" bus1="UC15452.1.2.3.4" phases=3 conn=delta model=2 kv=0.38 kw = 1766.0587980602804 pf=0.92 status=variable vmaxpu=1.5 vminpu=0.93 daily="RES_2_DU" 
New "Load.BT_7701_M2" bus1="UC15452.1.2.3.4" phases=3 conn=delta model=3 kv=0.38 kw = 1766.0587980602804 pf=0.92 status=variable vmaxpu=1.5 vminpu=0.93 daily="RES_2_DU"
 
New "Load.BT_387_M1" bus1="UC15581.1.4" phases=1 conn=delta model=2 kv=0.22 kw = 517.481715889145 pf=0.92 status=variable vmaxpu=1.5 vminpu=0.93 daily="RES_3_DU" 
New "Load.BT_387_M2" bus1="UC15581.1.4" phases=1 conn=delta model=3 kv=0.22 kw = 517.481715889145 pf=0.92 status=variable vmaxpu=1.5 vminpu=0.93 daily="RES_3_DU"
 
New "Load.BT_3034_M1" bus1="UC14783.1.2.3.4" phases=3 conn=delta model=2 kv=0.38 kw = 584.754338954734 pf=0.92 status=variable vmaxpu=1.5 vminpu=0.93 daily="RES_3_DU" 
New "Load.BT_3034_M2" bus1="UC14783.1.2.3.4" phases=3 conn=delta model=3 kv=0.38 kw = 584.754338954734 pf=0.92 status=variable vmaxpu=1.5 vminpu=0.93 daily="RES_3_DU"
 
New "Load.BT_1124_M1" bus1="UC8867.1.4" phases=1 conn=delta model=2 kv=0.22 kw = 1273.0050210872969 pf=0.92 status=variable vmaxpu=1.5 vminpu=0.93 daily="RES_3_DU" 
New "Load.BT_1124_M2" bus1="UC8867.1.4" phases=1 conn=delta model=3 kv=0.22 kw = 1273.0050210872969 pf=0.92 status=variable vmaxpu=1.5 vminpu=0.93 daily="RES_3_DU"
 
New "Load.BT_121_M1" bus1="UC12650.2.3.4" phases=2 conn=delta model=2 kv=0.38 kw = 433.8918340820525 pf=0.92 status=variable vmaxpu=1.5 vminpu=0.93 daily="RES_7_DU" 
New "Load.BT_121_M2" bus1="UC12650.2.3.4" phases=2 conn=delta model=3 kv=0.38 kw = 433.8918340820525 pf=0.92 status=variable vmaxpu=1.5 vminpu=0.93 daily="RES_7_DU"
 
New "Load.BT_239_M1" bus1="UC16074.1.2.3.4" phases=3 conn=delta model=2 kv=0.38 kw = 20838.988698855872 pf=0.92 status=variable vmaxpu=1.5 vminpu=0.93 daily="RES_3_DU" 
New "Load.BT_239_M2" bus1="UC16074.1.2.3.4" phases=3 conn=delta model=3 kv=0.38 kw = 20838.988698855872 pf=0.92 status=variable vmaxpu=1.5 vminpu=0.93 daily="RES_3_DU"
 
New "Load.BT_8152_M1" bus1="UC16078.1.2.4" phases=2 conn=delta model=2 kv=0.38 kw = 287.1343019660642 pf=0.92 status=variable vmaxpu=1.5 vminpu=0.93 daily="RES_7_DU" 
New "Load.BT_8152_M2" bus1="UC16078.1.2.4" phases=2 conn=delta model=3 kv=0.38 kw = 287.1343019660642 pf=0.92 status=variable vmaxpu=1.5 vminpu=0.93 daily="RES_7_DU"
 
New "Load.BT_8398_M1" bus1="UC15580.2.4" phases=1 conn=delta model=2 kv=0.22 kw = 429.18188667945367 pf=0.92 status=variable vmaxpu=1.5 vminpu=0.93 daily="RES_2_DU" 
New "Load.BT_8398_M2" bus1="UC15580.2.4" phases=1 conn=delta model=3 kv=0.22 kw = 429.18188667945367 pf=0.92 status=variable vmaxpu=1.5 vminpu=0.93 daily="RES_2_DU"
 
New "Load.BT_2466_M1" bus1="UC15707.1.4" phases=1 conn=delta model=2 kv=0.22 kw = 350.25188453150815 pf=0.92 status=variable vmaxpu=1.5 vminpu=0.93 daily="RES_2_DU" 
New "Load.BT_2466_M2" bus1="UC15707.1.4" phases=1 conn=delta model=3 kv=0.22 kw = 350.25188453150815 pf=0.92 status=variable vmaxpu=1.5 vminpu=0.93 daily="RES_2_DU"
 
New "Load.BT_2214_M1" bus1="UC11074.1.4" phases=1 conn=delta model=2 kv=0.22 kw = 0.0 pf=0.92 status=variable vmaxpu=1.5 vminpu=0.93 daily="COM_1_DU" 
New "Load.BT_2214_M2" bus1="UC11074.1.4" phases=1 conn=delta model=3 kv=0.22 kw = 0.0 pf=0.92 status=variable vmaxpu=1.5 vminpu=0.93 daily="COM_1_DU"
 
New "Load.BT_1112_M1" bus1="UC8981.2.4" phases=1 conn=delta model=2 kv=0.22 kw = 878.0962738958937 pf=0.92 status=variable vmaxpu=1.5 vminpu=0.93 daily="RES_2_DU" 
New "Load.BT_1112_M2" bus1="UC8981.2.4" phases=1 conn=delta model=3 kv=0.22 kw = 878.0962738958937 pf=0.92 status=variable vmaxpu=1.5 vminpu=0.93 daily="RES_2_DU"
 
New "Load.BT_6942_M1" bus1="UC15761.1.2.3.4" phases=3 conn=delta model=2 kv=0.38 kw = 1336.8769113808269 pf=0.92 status=variable vmaxpu=1.5 vminpu=0.93 daily="RES_2_DU" 
New "Load.BT_6942_M2" bus1="UC15761.1.2.3.4" phases=3 conn=delta model=3 kv=0.38 kw = 1336.8769113808269 pf=0.92 status=variable vmaxpu=1.5 vminpu=0.93 daily="RES_2_DU"
 
New "Load.BT_2085_M1" bus1="UC15760.1.2.3.4" phases=3 conn=delta model=2 kv=0.38 kw = 623.0737435911132 pf=0.92 status=variable vmaxpu=1.5 vminpu=0.93 daily="COM_1_DU" 
New "Load.BT_2085_M2" bus1="UC15760.1.2.3.4" phases=3 conn=delta model=3 kv=0.38 kw = 623.0737435911132 pf=0.92 status=variable vmaxpu=1.5 vminpu=0.93 daily="COM_1_DU"
 
New "Load.BT_702_M1" bus1="UC8051.1.2.4" phases=2 conn=delta model=2 kv=0.38 kw = 1055.6887787287712 pf=0.92 status=variable vmaxpu=1.5 vminpu=0.93 daily="RES_2_DU" 
New "Load.BT_702_M2" bus1="UC8051.1.2.4" phases=2 conn=delta model=3 kv=0.38 kw = 1055.6887787287712 pf=0.92 status=variable vmaxpu=1.5 vminpu=0.93 daily="RES_2_DU"
 
New "Load.BT_7425_M1" bus1="UC15763.3.4" phases=1 conn=delta model=2 kv=0.22 kw = 0.0 pf=0.92 status=variable vmaxpu=1.5 vminpu=0.93 daily="RES_2_DU" 
New "Load.BT_7425_M2" bus1="UC15763.3.4" phases=1 conn=delta model=3 kv=0.22 kw = 0.0 pf=0.92 status=variable vmaxpu=1.5 vminpu=0.93 daily="RES_2_DU"
 
New "Load.BT_854_M1" bus1="UC13201.2.4" phases=1 conn=delta model=2 kv=0.22 kw = 616.6406417808242 pf=0.92 status=variable vmaxpu=1.5 vminpu=0.93 daily="RES_2_DU" 
New "Load.BT_854_M2" bus1="UC13201.2.4" phases=1 conn=delta model=3 kv=0.22 kw = 616.6406417808242 pf=0.92 status=variable vmaxpu=1.5 vminpu=0.93 daily="RES_2_DU"
 
New "Load.BT_854_M1" bus1="UC13201.3.4" phases=1 conn=delta model=2 kv=0.22 kw = 1203.682532756169 pf=0.92 status=variable vmaxpu=1.5 vminpu=0.93 daily="RES_2_DU" 
New "Load.BT_854_M2" bus1="UC13201.3.4" phases=1 conn=delta model=3 kv=0.22 kw = 1203.682532756169 pf=0.92 status=variable vmaxpu=1.5 vminpu=0.93 daily="RES_2_DU"
 
New "Load.BT_3034_M1" bus1="UC14783.1.2.3.4" phases=3 conn=delta model=2 kv=0.38 kw = 619.6934380706816 pf=0.92 status=variable vmaxpu=1.5 vminpu=0.93 daily="RES_11_DU" 
...